Version 4
SHEET 1 880 680
WIRE 112 80 -16 80
WIRE -16 96 -16 80
WIRE 112 112 112 80
WIRE 128 112 112 112
WIRE 288 112 176 112
WIRE 128 144 112 144
WIRE 288 144 176 144
WIRE -16 192 -16 176
WIRE 64 192 -16 192
WIRE 112 192 112 144
WIRE 112 192 64 192
FLAG 288 112 vout+
FLAG 288 144 vout-
FLAG 64 192 0
SYMBOL voltage -16 80 R0
WINDOW 123 0 0 Left 0
WINDOW 39 0 0 Left 0
SYMATTR InstName V1
SYMATTR Value SINE(0 5 50)
SYMBOL puente 144 128 R0
SYMATTR InstName X1
TEXT -48 208 Left 2 !.tran {1/50}
